[globalOptions]
outputDir = /home/rhut/technicalPaperExampleNotebooks/ewatercycle_output/pcrglobwb_20210922_084109
inputDir = /mnt/data/parameter-sets/pcrglobwb_global
cloneMap = global_05min/cloneMaps/merrimack_05min.map
landmask = global_05min/cloneMaps/merrimack_05min.map
institution = Department of Physical Geography, Utrecht University
title = PCR-GLOBWB 2 output (not coupled to MODFLOW)
description = by Edwin H. Sutanudjaja (contact: e.h.sutanudjaja@uu.nl)
startTime = 2002-01-01
endTime = 2002-12-31
maxSpinUpsInYears = 0
minConvForSoilSto = 0.0
minConvForGwatSto = 0.0
minConvForChanSto = 0.0
minConvForTotlSto = 0.0

[meteoOptions]
precipitationNC = global_05min/meteo/pcrglobwb_OBS6_ERA5_reanaly_1_day_pr_2002-2016_merrimack.nc
temperatureNC = global_05min/meteo/pcrglobwb_OBS6_ERA5_reanaly_1_day_tas_2002-2016_merrimack.nc
referenceETPotMethod = Hamon
refETPotFileNC = 'test'
precipitationVariableName = pr
temperatureVariableName = tas
referenceEPotVariableName = potentialEvaporation
precipitationConstant = 0.0
precipitationFactor = 1.0
temperatureConstant = -273.15
temperatureFactor = 1.0
referenceEPotConstant = 0.0
referenceEPotFactor = 1.0

[meteoDownscalingOptions]
downscalePrecipitation = True
downscaleTemperature = True
downscaleReferenceETPot = True
meteoDownscaleIds = global_05min/meteo/downscaling_from_30min/uniqueIds_30min.map
highResolutionDEM = global_05min/meteo/downscaling_from_30min/gtopo05min.map
temperLapseRateNC = global_05min/meteo/downscaling_from_30min/temperature_slope.nc
precipLapseRateNC = global_05min/meteo/downscaling_from_30min/precipitation_slope.nc
temperatCorrelNC = global_05min/meteo/downscaling_from_30min/temperature_correl.nc
precipitCorrelNC = global_05min/meteo/downscaling_from_30min/precipitation_correl.nc
smoothingWindowsLength = 0

[landSurfaceOptions]
debugWaterBalance = True
numberOfUpperSoilLayers = 2
topographyNC = global_05min/landSurface/topography/topography_parameters_5_arcmin_october_2015.nc
soilPropertiesNC = global_05min/landSurface/soil/soilProperties5ArcMin.nc
includeIrrigation = True
historicalIrrigationArea = global_05min/waterUse/irrigation/irrigated_areas/irrigationArea05ArcMin.nc
irrigationEfficiency = global_30min/waterUse/irrigation/irrigation_efficiency/efficiency.map
includeDomesticWaterDemand = True
includeIndustryWaterDemand = True
includeLivestockWaterDemand = True
domesticWaterDemandFile = global_05min/waterUse/waterDemand/domestic/domestic_water_demand_version_april_2015.nc
industryWaterDemandFile = global_05min/waterUse/waterDemand/industry/industry_water_demand_version_april_2015.nc
livestockWaterDemandFile = global_05min/waterUse/waterDemand/livestock/livestock_water_demand_version_april_2015.nc
desalinationWater = global_05min/waterUse/desalination/desalination_water_version_april_2015.nc
allocationSegmentsForGroundSurfaceWater = global_05min/waterUse/abstraction_zones/abstraction_zones_60min_05min.map
irrigationSurfaceWaterAbstractionFractionData = global_05min/waterUse/source_partitioning/surface_water_fraction_for_irrigation/AEI_SWFRAC.map
irrigationSurfaceWaterAbstractionFractionDataQuality = global_05min/waterUse/source_partitioning/surface_water_fraction_for_irrigation/AEI_QUAL.map
treshold_to_maximize_irrigation_surface_water = 0.50
treshold_to_minimize_fossil_groundwater_irrigation = 0.70
maximumNonIrrigationSurfaceWaterAbstractionFractionData = global_30min/waterUse/source_partitioning/surface_water_fraction_for_non_irrigation/max_city_sw_fraction.map

[forestOptions]
name = forest
debugWaterBalance = True
snowModuleType = Simple
freezingT = 0.0
degreeDayFactor = 0.0025
snowWaterHoldingCap = 0.1
refreezingCoeff = 0.05
minTopWaterLayer = 0.0
minCropKC = 0.2
cropCoefficientNC = global_05min/landSurface/landCover/naturalTall/cropCoefficientForest.nc
interceptCapNC = global_05min/landSurface/landCover/naturalTall/interceptCapInputForest.nc
coverFractionNC = global_05min/landSurface/landCover/naturalTall/coverFractionInputForest.nc
landCoverMapsNC = None
fracVegCover = global_05min/landSurface/landCover/naturalTall/vegf_tall.map
minSoilDepthFrac = global_30min/landSurface/landCover/naturalTall/minf_tall_permafrost.map
maxSoilDepthFrac = global_30min/landSurface/landCover/naturalTall/maxf_tall.map
rootFraction1 = global_05min/landSurface/landCover/naturalTall/rfrac1_tall.map
rootFraction2 = global_05min/landSurface/landCover/naturalTall/rfrac2_tall.map
maxRootDepth = 1.0
arnoBeta = None
interceptStorIni = global_05min/initialConditions/interceptStor_forest_1999-12-31.map
snowCoverSWEIni = global_05min/initialConditions/snowCoverSWE_forest_1999-12-31.map
snowFreeWaterIni = global_05min/initialConditions/snowFreeWater_forest_1999-12-31.map
topWaterLayerIni = global_05min/initialConditions/topWaterLayer_forest_1999-12-31.map
storUppIni = global_05min/initialConditions/storUpp_forest_1999-12-31.map
storLowIni = global_05min/initialConditions/storLow_forest_1999-12-31.map
interflowIni = global_05min/initialConditions/interflow_forest_1999-12-31.map

[grasslandOptions]
name = grassland
debugWaterBalance = True
snowModuleType = Simple
freezingT = 0.0
degreeDayFactor = 0.0025
snowWaterHoldingCap = 0.1
refreezingCoeff = 0.05
minTopWaterLayer = 0.0
minCropKC = 0.2
cropCoefficientNC = global_05min/landSurface/landCover/naturalShort/cropCoefficientGrassland.nc
interceptCapNC = global_05min/landSurface/landCover/naturalShort/interceptCapInputGrassland.nc
coverFractionNC = global_05min/landSurface/landCover/naturalShort/coverFractionInputGrassland.nc
landCoverMapsNC = None
fracVegCover = global_05min/landSurface/landCover/naturalShort/vegf_short.map
minSoilDepthFrac = global_30min/landSurface/landCover/naturalShort/minf_short_permafrost.map
maxSoilDepthFrac = global_30min/landSurface/landCover/naturalShort/maxf_short.map
rootFraction1 = global_05min/landSurface/landCover/naturalShort/rfrac1_short.map
rootFraction2 = global_05min/landSurface/landCover/naturalShort/rfrac2_short.map
maxRootDepth = 0.5
arnoBeta = None
interceptStorIni = global_05min/initialConditions/interceptStor_grassland_1999-12-31.map
snowCoverSWEIni = global_05min/initialConditions/snowCoverSWE_grassland_1999-12-31.map
snowFreeWaterIni = global_05min/initialConditions/snowFreeWater_grassland_1999-12-31.map
topWaterLayerIni = global_05min/initialConditions/topWaterLayer_grassland_1999-12-31.map
storUppIni = global_05min/initialConditions/storUpp_grassland_1999-12-31.map
storLowIni = global_05min/initialConditions/storLow_grassland_1999-12-31.map
interflowIni = global_05min/initialConditions/interflow_grassland_1999-12-31.map

[irrPaddyOptions]
name = irrPaddy
debugWaterBalance = True
snowModuleType = Simple
freezingT = 0.0
degreeDayFactor = 0.0025
snowWaterHoldingCap = 0.1
refreezingCoeff = 0.05
landCoverMapsNC = None
fracVegCover = global_05min/landSurface/landCover/irrPaddy/fractionPaddy.map
minSoilDepthFrac = global_30min/landSurface/landCover/irrPaddy/minf_paddy_permafrost.map
maxSoilDepthFrac = global_30min/landSurface/landCover/irrPaddy/maxf_paddy.map
rootFraction1 = global_30min/landSurface/landCover/irrPaddy/rfrac1_paddy.map
rootFraction2 = global_30min/landSurface/landCover/irrPaddy/rfrac2_paddy.map
maxRootDepth = 0.5
arnoBeta = None
minTopWaterLayer = 0.05
minCropKC = 0.2
cropDeplFactor = 0.2
minInterceptCap = 0.0002
cropCoefficientNC = global_30min/landSurface/landCover/irrPaddy/Global_CropCoefficientKc-IrrPaddy_30min.nc
interceptStorIni = global_05min/initialConditions/interceptStor_irrPaddy_1999-12-31.map
snowCoverSWEIni = global_05min/initialConditions/snowCoverSWE_irrPaddy_1999-12-31.map
snowFreeWaterIni = global_05min/initialConditions/snowFreeWater_irrPaddy_1999-12-31.map
topWaterLayerIni = global_05min/initialConditions/topWaterLayer_irrPaddy_1999-12-31.map
storUppIni = global_05min/initialConditions/storUpp_irrPaddy_1999-12-31.map
storLowIni = global_05min/initialConditions/storLow_irrPaddy_1999-12-31.map
interflowIni = global_05min/initialConditions/interflow_irrPaddy_1999-12-31.map

[irrNonPaddyOptions]
name = irrNonPaddy
debugWaterBalance = True
snowModuleType = Simple
freezingT = 0.0
degreeDayFactor = 0.0025
snowWaterHoldingCap = 0.1
refreezingCoeff = 0.05
landCoverMapsNC = None
fracVegCover = global_05min/landSurface/landCover/irrNonPaddy/fractionNonPaddy.map
minSoilDepthFrac = global_30min/landSurface/landCover/irrNonPaddy/minf_nonpaddy_permafrost.map
maxSoilDepthFrac = global_30min/landSurface/landCover/irrNonPaddy/maxf_nonpaddy.map
rootFraction1 = global_30min/landSurface/landCover/irrNonPaddy/rfrac1_nonpaddy.map
rootFraction2 = global_30min/landSurface/landCover/irrNonPaddy/rfrac2_nonpaddy.map
maxRootDepth = 1.0
arnoBeta = None
minTopWaterLayer = 0.0
minCropKC = 0.2
cropDeplFactor = 0.5
minInterceptCap = 0.0002
cropCoefficientNC = global_30min/landSurface/landCover/irrNonPaddy/Global_CropCoefficientKc-IrrNonPaddy_30min.nc
interceptStorIni = global_05min/initialConditions/interceptStor_irrNonPaddy_1999-12-31.map
snowCoverSWEIni = global_05min/initialConditions/snowCoverSWE_irrNonPaddy_1999-12-31.map
snowFreeWaterIni = global_05min/initialConditions/snowFreeWater_irrNonPaddy_1999-12-31.map
topWaterLayerIni = global_05min/initialConditions/topWaterLayer_irrNonPaddy_1999-12-31.map
storUppIni = global_05min/initialConditions/storUpp_irrNonPaddy_1999-12-31.map
storLowIni = global_05min/initialConditions/storLow_irrNonPaddy_1999-12-31.map
interflowIni = global_05min/initialConditions/interflow_irrNonPaddy_1999-12-31.map

[groundwaterOptions]
debugWaterBalance = True
groundwaterPropertiesNC = global_05min/groundwater/properties/groundwaterProperties5ArcMin.nc
minRecessionCoeff = 1.0e-4
limitFossilGroundWaterAbstraction = True
estimateOfRenewableGroundwaterCapacity = 0.0
estimateOfTotalGroundwaterThickness = global_05min/groundwater/aquifer_thickness_estimate/thickness_05min.map
minimumTotalGroundwaterThickness = 100.
maximumTotalGroundwaterThickness = None
pumpingCapacityNC = global_30min/waterUse/groundwater_pumping_capacity/regional_abstraction_limit.nc
storGroundwaterIni = global_05min/initialConditions/storGroundwater_1999-12-31.map
storGroundwaterFossilIni = global_05min/initialConditions/storGroundwaterFossil_1999-12-31.map
avgNonFossilGroundwaterAllocationLongIni = global_05min/initialConditions/avgNonFossilGroundwaterAllocationLong_1999-12-31.map
avgNonFossilGroundwaterAllocationShortIni = global_05min/initialConditions/avgNonFossilGroundwaterAllocationShort_1999-12-31.map
avgTotalGroundwaterAbstractionIni = global_05min/initialConditions/avgTotalGroundwaterAbstraction_1999-12-31.map
avgTotalGroundwaterAllocationLongIni = global_05min/initialConditions/avgTotalGroundwaterAllocationLong_1999-12-31.map
avgTotalGroundwaterAllocationShortIni = global_05min/initialConditions/avgTotalGroundwaterAllocationShort_1999-12-31.map
relativeGroundwaterHeadIni = global_05min/initialConditions/relativeGroundwaterHead_1999-12-31.map
baseflowIni = global_05min/initialConditions/baseflow_1999-12-31.map
allocationSegmentsForGroundwater = global_05min/waterUse/abstraction_zones/abstraction_zones_30min_05min.map
minTransimissivityForProductiveAquifer = 50.0

[routingOptions]
debugWaterBalance = True
lddMap = global_05min/routing/ldd_and_cell_area/lddsound_05min.map
cellAreaMap = global_05min/routing/ldd_and_cell_area/cellsize05min.correct.map
routingMethod = accuTravelTime
manningsN = 0.04
dynamicFloodPlain = False
floodplainManningsN = 0.07
gradient = global_05min/routing/channel_properties/channel_gradient.map
constantChannelDepth = global_05min/routing/channel_properties/bankfull_depth.map
constantChannelWidth = global_05min/routing/channel_properties/bankfull_width.map
minimumChannelWidth = global_05min/routing/channel_properties/bankfull_width.map
bankfullCapacity = None
relativeElevationFiles = global_05min/routing/channel_properties/dzRel%04d.map
relativeElevationLevels = 0.0, 0.01, 0.05, 0.10, 0.20, 0.30, 0.40, 0.50, 0.60, 0.70, 0.80, 0.90, 1.00
cropCoefficientWaterNC = global_30min/routing/kc_surface_water/cropCoefficientForOpenWater.nc
minCropWaterKC = 1.00
waterBodyInputNC = global_05min/routing/surface_water_bodies/waterBodies5ArcMin.nc
onlyNaturalWaterBodies = False
waterBodyStorageIni = global_05min/initialConditions/waterBodyStorage_1999-12-31.map
channelStorageIni = global_05min/initialConditions/channelStorage_1999-12-31.map
readAvlChannelStorageIni = global_05min/initialConditions/readAvlChannelStorage_1999-12-31.map
avgDischargeLongIni = global_05min/initialConditions/avgDischargeLong_1999-12-31.map
avgDischargeShortIni = global_05min/initialConditions/avgDischargeShort_1999-12-31.map
m2tDischargeLongIni = global_05min/initialConditions/m2tDischargeLong_1999-12-31.map
avgBaseflowLongIni = global_05min/initialConditions/avgBaseflowLong_1999-12-31.map
riverbedExchangeIni = global_05min/initialConditions/riverbedExchange_1999-12-31.map
subDischargeIni = global_05min/initialConditions/subDischarge_1999-12-31.map
avgLakeReservoirInflowShortIni = global_05min/initialConditions/avgLakeReservoirInflowShort_1999-12-31.map
avgLakeReservoirOutflowLongIni = global_05min/initialConditions/avgLakeReservoirOutflowLong_1999-12-31.map
timestepsToAvgDischargeIni = global_05min/initialConditions/timestepsToAvgDischarge_1999-12-31.map

[reportingOptions]
outDailyTotNC = temperature,precipitation,totalEvaporation,gwRecharge,totalRunoff,totalGroundwaterAbstraction,discharge,surfaceWaterStorage,interceptStor,snowFreeWater,snowCoverSWE,topWaterLayer,storUppTotal,storLowTotal,storGroundwater,totalWaterStorageThickness,channelStorage,surfaceWaterAbstraction,nonIrrGrossDemand,nonIrrWaterConsumption,irrPaddyWaterWithdrawal,domesticWaterWithdrawal,industryWaterWithdrawal,precipitation_at_irrigation,evaporation_from_irrigation,surfaceWaterStorage,dynamicFracWat,surfaceWaterLevel
outMonthTotNC = None
outMonthAvgNC = None
outMonthEndNC = None
outAnnuaTotNC = None
outAnnuaAvgNC = None
outAnnuaEndNC = None
outMonthMaxNC = None
outAnnuaMaxNC = None
formatNetCDF = NETCDF4
zlib = True

